Version 4
SHEET 1 1140 680
WIRE 112 0 -96 0
WIRE 304 0 112 0
WIRE 112 64 112 0
WIRE 304 64 304 0
WIRE 416 128 352 128
WIRE 560 128 416 128
WIRE 688 128 560 128
WIRE 1056 128 944 128
WIRE -96 144 -96 0
WIRE 1056 144 1056 128
WIRE 416 160 416 128
WIRE 112 176 112 128
WIRE 112 176 48 176
WIRE 304 176 304 128
WIRE 352 176 352 128
WIRE 352 176 304 176
WIRE 560 192 560 128
WIRE 48 208 48 176
WIRE 112 256 112 176
WIRE 304 256 304 176
WIRE 816 272 816 224
WIRE 1056 272 1056 224
WIRE 416 304 416 224
WIRE 560 304 560 256
WIRE 560 304 416 304
WIRE -96 384 -96 224
WIRE 112 384 112 320
WIRE 112 384 -96 384
WIRE 304 384 304 320
WIRE 304 384 112 384
WIRE 416 432 416 304
FLAG 416 432 0
FLAG 48 208 0
FLAG 816 272 0
FLAG 1056 272 0
SYMBOL schottky 128 128 R180
WINDOW 0 24 64 Left 2
WINDOW 3 24 0 Left 2
SYMATTR InstName D1
SYMATTR Value 1N5819
SYMATTR Description Diode
SYMATTR Type diode
SYMBOL schottky 288 64 R0
SYMATTR InstName D2
SYMATTR Value 1N5819
SYMATTR Description Diode
SYMATTR Type diode
SYMBOL schottky 320 320 R180
WINDOW 0 24 64 Left 2
WINDOW 3 24 0 Left 2
SYMATTR InstName D3
SYMATTR Value 1N5819
SYMATTR Description Diode
SYMATTR Type diode
SYMBOL schottky 96 256 R0
SYMATTR InstName D4
SYMATTR Value 1N5819
SYMATTR Description Diode
SYMATTR Type diode
SYMBOL polcap 400 160 R0
WINDOW 3 24 56 Left 2
SYMATTR Value 4700µ
SYMATTR InstName C1
SYMATTR Description Capacitor
SYMATTR Type cap
SYMATTR SpiceLine V=35 Irms=2.03 Rser=0.033 Lser=0 mfg="Nichicon" pn="UPR1V472MRH" type="Al electrolytic"
SYMBOL Misc\\signal -96 128 R0
WINDOW 123 24 132 Left 2
WINDOW 39 24 160 Left 2
SYMATTR Value2 AC 1
SYMATTR SpiceLine Rser=0.2
SYMATTR InstName V2
SYMATTR Value SINE(0 17.68 50 0)
SYMBOL Regulators\\7812 816 128 R0
SYMATTR InstName U1
SYMBOL res 1040 128 R0
SYMATTR InstName R1
SYMATTR Value 12R
SYMBOL cap 544 192 R0
SYMATTR InstName C2
SYMATTR Value 0.1µ
SYMATTR SpiceLine V=50 Irms=1.78 Rser=0.0675534 Lser=0 mfg="KEMET" pn="C1210F104K5RAC" type="X7R"
TEXT -128 392 Left 2 !;tran 1s
TEXT -136 456 Left 2 !.tran 1s
