Version 4
SHEET 1 4660 1324
WIRE -320 -288 -320 -352
WIRE -320 -176 -320 -208
WIRE 1536 -96 1536 -144
WIRE 160 -16 96 -16
WIRE 336 -16 240 -16
WIRE -192 0 -192 -48
WIRE 1536 32 1536 -16
WIRE 400 48 400 -32
WIRE 880 48 816 48
WIRE 1040 48 960 48
WIRE 1136 80 1136 32
WIRE 512 96 480 96
WIRE 640 96 576 96
WIRE 288 128 288 64
WIRE 288 128 256 128
WIRE -192 144 -192 80
WIRE -80 144 -192 144
WIRE -16 144 -80 144
WIRE 96 144 96 -16
WIRE 96 144 64 144
WIRE 128 144 96 144
WIRE -192 160 -192 144
WIRE 304 160 256 160
WIRE 1536 160 1536 96
WIRE 96 176 80 176
WIRE 128 176 96 176
WIRE 1008 176 1008 80
WIRE 1008 176 976 176
WIRE 336 192 336 -16
WIRE 336 192 256 192
WIRE 400 192 400 128
WIRE 400 192 336 192
WIRE 480 192 480 96
WIRE 480 192 400 192
WIRE 512 192 480 192
WIRE 640 192 640 96
WIRE 640 192 592 192
WIRE 704 192 640 192
WIRE 816 192 816 48
WIRE 816 192 784 192
WIRE 848 192 816 192
WIRE 1008 208 976 208
WIRE 400 224 400 192
WIRE 848 224 800 224
WIRE 1040 240 1040 48
WIRE 1040 240 976 240
WIRE 1136 240 1136 160
WIRE 1136 240 1040 240
WIRE 1200 240 1136 240
WIRE 1408 240 1264 240
WIRE 1488 240 1408 240
WIRE 304 256 304 160
WIRE -192 272 -192 240
WIRE -80 272 -80 208
WIRE 1408 272 1408 240
WIRE 640 288 640 256
WIRE 1008 304 1008 208
WIRE 1536 304 1536 256
WIRE 400 336 400 304
WIRE -320 352 -320 272
WIRE 1408 384 1408 352
WIRE 480 448 480 192
WIRE 544 448 480 448
WIRE -320 464 -320 432
WIRE -240 464 -240 448
WIRE -240 464 -320 464
WIRE 1808 464 1808 432
WIRE -320 480 -320 464
WIRE -320 592 -320 544
WIRE 1808 608 1808 544
WIRE 672 688 640 688
WIRE 816 688 736 688
WIRE 1120 688 1056 688
WIRE 1296 688 1200 688
WIRE 1376 688 1376 640
WIRE 1808 784 1808 672
WIRE 1264 800 1264 720
WIRE 1264 800 1216 800
WIRE 544 816 544 448
WIRE 640 816 640 688
WIRE 640 816 544 816
WIRE 656 816 640 816
WIRE 816 816 816 688
WIRE 816 816 736 816
WIRE 896 816 816 816
WIRE 1056 816 1056 688
WIRE 1056 816 976 816
WIRE 1088 816 1056 816
WIRE 816 832 816 816
WIRE 1248 832 1216 832
WIRE 1088 848 992 848
WIRE 992 864 992 848
WIRE 1296 864 1296 688
WIRE 1296 864 1216 864
WIRE 1376 864 1376 768
WIRE 1376 864 1296 864
WIRE 1408 864 1376 864
WIRE 1632 864 1472 864
WIRE 1760 864 1632 864
WIRE 1632 880 1632 864
WIRE 816 944 816 896
WIRE 1248 944 1248 832
WIRE 1808 976 1808 880
WIRE 1632 1008 1632 960
FLAG 304 256 0
FLAG -320 592 0
FLAG -320 -176 0
FLAG -192 272 0
FLAG -80 272 0
FLAG 96 176 VRef
FLAG -240 448 VRef
FLAG -320 -352 VSup
FLAG 288 64 VSup
FLAG -192 -48 VSup
FLAG 400 -32 VSup
FLAG 400 336 0
FLAG 640 288 0
FLAG 1008 304 0
FLAG 800 224 VRef
FLAG 1008 80 VSup
FLAG 1536 304 0
FLAG 1136 32 VSup
FLAG 1536 -144 VSup
FLAG -320 272 VSup
FLAG 992 864 VRef
FLAG 1264 720 VSup
FLAG 1248 944 0
FLAG 816 944 0
FLAG 1632 1008 0
FLAG 1808 976 0
FLAG 1376 640 VSup
FLAG 1808 432 VSup
FLAG 1408 384 0
SYMBOL AutoGenerated\\LM2903B 192 160 R0
SYMATTR InstName U1
SYMBOL AutoGenerated\\LM2903B 912 208 R0
SYMATTR InstName U2
SYMBOL res -208 -16 R0
SYMATTR InstName R1
SYMATTR Value 100K
SYMATTR SpiceLine tol=1 pwr=0.1
SYMBOL res -208 144 R0
SYMATTR InstName R2
SYMATTR Value 82k
SYMBOL polcap -96 144 R0
WINDOW 3 24 56 Left 2
SYMATTR Value 1µ
SYMATTR InstName C1
SYMATTR Description Capacitor
SYMATTR Type cap
SYMATTR SpiceLine V=50 Irms=6.2m Rser=2.66795 Lser=851.833p mfg="Würth Elektronik" pn="865230640005 WCAP-AS5H 4x5,5" type="Al electrolytic"
SYMBOL res 80 128 R90
WINDOW 0 0 56 VBottom 2
WINDOW 3 32 56 VTop 2
SYMATTR InstName R3
SYMATTR Value 10k
SYMBOL voltage -320 -304 R0
WINDOW 123 0 0 Left 0
WINDOW 39 24 44 Left 2
SYMATTR SpiceLine Rser=0.1
SYMATTR InstName V2
SYMATTR Value 12
SYMBOL res 256 -32 R90
WINDOW 0 0 56 VBottom 2
WINDOW 3 32 56 VTop 2
SYMATTR InstName R4
SYMATTR Value 1Meg
SYMATTR SpiceLine tol=1 pwr=0.1
SYMBOL res 384 208 R0
SYMATTR InstName R5
SYMATTR Value 10K
SYMATTR SpiceLine tol=1 pwr=0.1
SYMBOL res 384 32 R0
SYMATTR InstName R6
SYMATTR Value 10K
SYMATTR SpiceLine tol=1 pwr=0.1
SYMBOL res 608 176 R90
WINDOW 0 0 56 VBottom 2
WINDOW 3 32 56 VTop 2
SYMATTR InstName R7
SYMATTR Value 150K
SYMATTR SpiceLine tol=1 pwr=0.1
SYMBOL polcap 624 192 R0
WINDOW 3 24 56 Left 2
SYMATTR Value 220µ
SYMATTR InstName C2
SYMATTR Description Capacitor
SYMATTR Type cap
SYMATTR SpiceLine V=16 Irms=235m Rser=0.36 Lser=0
SYMBOL res 800 176 R90
WINDOW 0 0 56 VBottom 2
WINDOW 3 32 56 VTop 2
SYMATTR InstName R8
SYMATTR Value 10K
SYMATTR SpiceLine tol=1 pwr=0.1
SYMBOL res 976 32 R90
WINDOW 0 0 56 VBottom 2
WINDOW 3 32 56 VTop 2
SYMATTR InstName R9
SYMATTR Value 5Meg1
SYMATTR SpiceLine tol=1 pwr=0.1
SYMBOL res 1120 64 R0
SYMATTR InstName R10
SYMATTR Value 10K
SYMATTR SpiceLine tol=1 pwr=0.1
SYMBOL diode 576 80 R90
WINDOW 0 0 32 VBottom 2
WINDOW 3 32 32 VTop 2
SYMATTR InstName D2
SYMATTR Value 1N4148
SYMBOL res 1520 -112 R0
SYMATTR InstName R13
SYMATTR Value 562
SYMATTR SpiceLine tol=1 pwr=0.1
SYMBOL LED 1520 32 R0
SYMATTR InstName D4
SYMATTR Value NSCW100
SYMBOL zener -304 544 R180
WINDOW 0 24 64 Left 2
WINDOW 3 24 0 Left 2
SYMATTR InstName D1
SYMATTR Value 1N748
SYMATTR Description Diode
SYMATTR Type diode
SYMBOL res -336 336 R0
SYMATTR InstName R14
SYMATTR Value 4.75K
SYMATTR SpiceLine tol=1 pwr=0.1
SYMBOL AutoGenerated\\LM2903B 1152 832 R0
SYMATTR InstName U3
SYMBOL diode 736 672 R90
WINDOW 0 0 32 VBottom 2
WINDOW 3 32 32 VTop 2
SYMATTR InstName D5
SYMATTR Value 1N4148
SYMBOL polcap 800 832 R0
WINDOW 3 24 56 Left 2
SYMATTR Value 220µ
SYMATTR InstName C4
SYMATTR Description Capacitor
SYMATTR Type cap
SYMATTR SpiceLine V=25 Irms=235m Rser=0.46 Lser=0
SYMBOL res 752 800 R90
WINDOW 0 0 56 VBottom 2
WINDOW 3 32 56 VTop 2
SYMATTR InstName R15
SYMATTR Value 225K
SYMATTR SpiceLine tol=1 pwr=0.1
SYMBOL res 992 800 R90
WINDOW 0 0 56 VBottom 2
WINDOW 3 32 56 VTop 2
SYMATTR InstName R16
SYMATTR Value 10K
SYMATTR SpiceLine tol=1 pwr=0.1
SYMBOL res 1216 672 R90
WINDOW 0 0 56 VBottom 2
WINDOW 3 32 56 VTop 2
SYMATTR InstName R17
SYMATTR Value 5Meg1
SYMATTR SpiceLine tol=1 pwr=0.25
SYMBOL res 1360 672 R0
SYMATTR InstName R19
SYMATTR Value 10K
SYMATTR SpiceLine tol=1 pwr=0.1
SYMBOL res 1616 864 R0
SYMATTR InstName R20
SYMATTR Value 100K
SYMATTR SpiceLine tol=1 pwr=0.1
SYMBOL LED 1792 608 R0
SYMATTR InstName D7
SYMATTR Value NSCW100
SYMBOL res 1792 448 R0
SYMATTR InstName R21
SYMATTR Value 562
SYMATTR SpiceLine tol=1 pwr=0.1
SYMBOL nmos 1760 784 R0
SYMATTR InstName M1
SYMATTR Value BS170
SYMBOL nmos 1488 160 R0
SYMATTR InstName M2
SYMATTR Value BS170
SYMBOL zener 1264 224 R90
WINDOW 0 -4 32 VBottom 2
WINDOW 3 36 32 VTop 2
SYMATTR InstName D3
SYMATTR Value ZD5V6
SYMATTR Description Diode
SYMATTR Type diode
SYMBOL zener 1472 848 R90
WINDOW 0 -4 32 VBottom 2
WINDOW 3 36 32 VTop 2
SYMATTR InstName D6
SYMATTR Value ZD5V6
SYMATTR Description Diode
SYMATTR Type diode
SYMBOL res 1392 256 R0
SYMATTR InstName R11
SYMATTR Value 100K
SYMATTR SpiceLine tol=1 pwr=0.1
TEXT 304 -664 Left 2 !.model BS170 VDMOS VTO=1.824 RG=270 RS=1.572 RD=1.436 RB=.768 KP=.1233 Cgdmax=20p Cgdmin=3p CGS=28p Cjo=35p Rds=1.2E8 IS=5p Bv=60 Ibv=10u Tt=161.6n
TEXT 304 -608 Left 2 !.model 1N748 D(Is=1.252f Rs=1.156 Ikf=0 N=1 Xti=3 Eg=1.11 Cjo=205p M=.6004 Vj=.75 Fc=.5 Isr=1.867n Nr=2 Bv=3.9 Ibv=17.244m Nbv=2.4016 Ibvl=8.619m Nbvl=13.283 Tbv1=-384.62u Vpk=3.9 mfg=Motorola type=zener)
TEXT 312 -568 Left 2 !.model ZD5V6 D(Is=1.252f Rs=1.156 Ikf=0 N=1 Xti=3 Eg=1.11 Cjo=205p M=.6004 Vj=.75 Fc=.5 Isr=1.867n Nr=2 Bv=5.6 Ibv=17.244m Nbv=2.4016 Ibvl=8.619m Nbvl=13.283 Tbv1=-384.62u Vpk=5.6 mfg=Motorola type=zener)
TEXT -432 1032 Left 2 !.tran 70 startup
